.SUBCKT parameters  1 2 3 4 5
* Pin 5 is the reference plane (usually it should be connected to GND)
* HZ S RI R 50
* Z1 = 50 Z2 = 50 Z3 = 50 Z4 = 50
R1N 1 100 -5.000000e+01
R1P 100 5 100.000000
R2N 2 200 -5.000000e+01
R2P 200 5 100.000000
R3N 3 300 -5.000000e+01
R3P 300 5 100.000000
R4N 4 400 -5.000000e+01
R4P 400 5 100.000000

* S11 FREQ R_I
 G0101 5 100 FREQ {V(100,5)}= R_I
+(  1.000000e+08Hz,  9.828050e-03, -6.984850e-04)
+(  1.001700e+08Hz,  9.827980e-03, -6.997450e-04)
+(  1.003410e+08Hz,  9.827900e-03, -7.010070e-04)
+(  1.005110e+08Hz,  9.827830e-03, -7.022710e-04)
+(  1.006830e+08Hz,  9.827750e-03, -7.035380e-04)
+(  1.008540e+08Hz,  9.827670e-03, -7.048070e-04)
+(  1.010260e+08Hz,  9.827600e-03, -7.060790e-04)
+(  1.011980e+08Hz,  9.827520e-03, -7.073540e-04)
+(  1.013700e+08Hz,  9.827440e-03, -7.086310e-04)
+(  1.015420e+08Hz,  9.827360e-03, -7.099100e-04)
+(  1.017150e+08Hz,  9.827280e-03, -7.111920e-04)
+(  1.018880e+08Hz,  9.827200e-03, -7.124760e-04)
+(  1.020620e+08Hz,  9.827120e-03, -7.137630e-04)
+(  1.022350e+08Hz,  9.827040e-03, -7.150530e-04)
+(  1.024090e+08Hz,  9.826960e-03, -7.163450e-04)
+(  1.025840e+08Hz,  9.826880e-03, -7.176390e-04)
+(  1.027580e+08Hz,  9.826800e-03, -7.189360e-04)
+(  1.029330e+08Hz,  9.826710e-03, -7.202360e-04)
+(  1.031080e+08Hz,  9.826630e-03, -7.215380e-04)
+(  1.032840e+08Hz,  9.826550e-03, -7.228420e-04)
+(  1.034600e+08Hz,  9.826460e-03, -7.241500e-04)
+(  1.036360e+08Hz,  9.826380e-03, -7.254600e-04)
+(  1.038120e+08Hz,  9.826290e-03, -7.267720e-04)
+(  1.039890e+08Hz,  9.826210e-03, -7.280870e-04)
+(  1.041660e+08Hz,  9.826120e-03, -7.294040e-04)
+(  1.043430e+08Hz,  9.826040e-03, -7.307250e-04)
+(  1.045210e+08Hz,  9.825950e-03, -7.320470e-04)
+(  1.046990e+08Hz,  9.825860e-03, -7.333730e-04)
+(  1.048770e+08Hz,  9.825770e-03, -7.347000e-04)
+(  1.050550e+08Hz,  9.825690e-03, -7.360310e-04)
+(  1.052340e+08Hz,  9.825600e-03, -7.373640e-04)
+(  1.054130e+08Hz,  9.825510e-03, -7.387000e-04)
+(  1.055930e+08Hz,  9.825420e-03, -7.400380e-04)
+(  1.057720e+08Hz,  9.825330e-03, -7.413790e-04)
+(  1.059520e+08Hz,  9.825240e-03, -7.427230e-04)
+(  1.061330e+08Hz,  9.825150e-03, -7.440690e-04)
+(  1.063130e+08Hz,  9.825050e-03, -7.454180e-04)
+(  1.064940e+08Hz,  9.824960e-03, -7.467700e-04)
+(  1.066760e+08Hz,  9.824870e-03, -7.481240e-04)
+(  1.068570e+08Hz,  9.824770e-03, -7.494810e-04)
+(  1.070390e+08Hz,  9.824680e-03, -7.508410e-04)
+(  1.072210e+08Hz,  9.824590e-03, -7.522030e-04)
+(  1.074040e+08Hz,  9.824490e-03, -7.535680e-04)
+(  1.075870e+08Hz,  9.824390e-03, -7.549360e-04)
+(  1.077700e+08Hz,  9.824300e-03, -7.563060e-04)
+(  1.079530e+08Hz,  9.824200e-03, -7.576790e-04)
+(  1.081370e+08Hz,  9.824100e-03, -7.590550e-04)
+(  1.083210e+08Hz,  9.824010e-03, -7.604340e-04)
+(  1.085050e+08Hz,  9.823910e-03, -7.618150e-04)
+(  1.086900e+08Hz,  9.823810e-03, -7.631990e-04)
+(  1.088750e+08Hz,  9.823710e-03, -7.645860e-04)
+(  1.090600e+08Hz,  9.823610e-03, -7.659750e-04)
+(  1.092460e+08Hz,  9.823510e-03, -7.673680e-04)
+(  1.094320e+08Hz,  9.823410e-03, -7.687630e-04)
+(  1.096180e+08Hz,  9.823310e-03, -7.701600e-04)
+(  1.098050e+08Hz,  9.823200e-03, -7.715610e-04)
+(  1.099920e+08Hz,  9.823100e-03, -7.729640e-04)
+(  1.101790e+08Hz,  9.823000e-03, -7.743700e-04)
+(  1.103660e+08Hz,  9.822890e-03, -7.757790e-04)
+(  1.105540e+08Hz,  9.822790e-03, -7.771910e-04)
+(  1.107420e+08Hz,  9.822680e-03, -7.786050e-04)
+(  1.109310e+08Hz,  9.822580e-03, -7.800220e-04)
+(  1.111200e+08Hz,  9.822470e-03, -7.814420e-04)
+(  1.113090e+08Hz,  9.822360e-03, -7.828650e-04)
+(  1.114980e+08Hz,  9.822250e-03, -7.842910e-04)
+(  1.116880e+08Hz,  9.822150e-03, -7.857190e-04)
+(  1.118780e+08Hz,  9.822040e-03, -7.871510e-04)
+(  1.120690e+08Hz,  9.821930e-03, -7.885850e-04)
+(  1.122590e+08Hz,  9.821820e-03, -7.900220e-04)
+(  1.124500e+08Hz,  9.821700e-03, -7.914620e-04)
+(  1.126420e+08Hz,  9.821590e-03, -7.929050e-04)
+(  1.128330e+08Hz,  9.821480e-03, -7.943500e-04)
+(  1.130250e+08Hz,  9.821370e-03, -7.957990e-04)
+(  1.132180e+08Hz,  9.821250e-03, -7.972500e-04)
+(  1.134110e+08Hz,  9.821140e-03, -7.987040e-04)
+(  1.136040e+08Hz,  9.821020e-03, -8.001610e-04)
+(  1.137970e+08Hz,  9.820910e-03, -8.016210e-04)
+(  1.139910e+08Hz,  9.820790e-03, -8.030840e-04)
+(  1.141850e+08Hz,  9.820680e-03, -8.045500e-04)
+(  1.143790e+08Hz,  9.820560e-03, -8.060190e-04)
+(  1.145740e+08Hz,  9.820440e-03, -8.074910e-04)
+(  1.147690e+08Hz,  9.820320e-03, -8.089650e-04)
+(  1.149640e+08Hz,  9.820200e-03, -8.104430e-04)
+(  1.151600e+08Hz,  9.820080e-03, -8.119240e-04)
+(  1.153560e+08Hz,  9.819960e-03, -8.134070e-04)
+(  1.155520e+08Hz,  9.819840e-03, -8.148930e-04)
+(  1.157490e+08Hz,  9.819720e-03, -8.163830e-04)
+(  1.159460e+08Hz,  9.819590e-03, -8.178750e-04)
+(  1.161430e+08Hz,  9.819470e-03, -8.193700e-04)
+(  1.163410e+08Hz,  9.819340e-03, -8.208690e-04)
+(  1.165390e+08Hz,  9.819220e-03, -8.223700e-04)
+(  1.167370e+08Hz,  9.819090e-03, -8.238740e-04)
+(  1.169360e+08Hz,  9.818970e-03, -8.253820e-04)
+(  1.171350e+08Hz,  9.818840e-03, -8.268920e-04)
+(  1.173340e+08Hz,  9.818710e-03, -8.284050e-04)
+(  1.175340e+08Hz,  9.818580e-03, -8.299220e-04)
+(  1.177340e+08Hz,  9.818450e-03, -8.314410e-04)
+(  1.179340e+08Hz,  9.818320e-03, -8.329630e-04)
+(  1.181350e+08Hz,  9.818190e-03, -8.344890e-04)
+(  1.183360e+08Hz,  9.818060e-03, -8.360170e-04)
+(  1.185380e+08Hz,  9.817930e-03, -8.375490e-04)
+(  1.187390e+08Hz,  9.817790e-03, -8.390840e-04)
+(  1.189410e+08Hz,  9.817660e-03, -8.406210e-04)
+(  1.191440e+08Hz,  9.817520e-03, -8.421620e-04)
+(  1.193470e+08Hz,  9.817390e-03, -8.437060e-04)
+(  1.195500e+08Hz,  9.817250e-03, -8.452530e-04)
+(  1.197530e+08Hz,  9.817110e-03, -8.468030e-04)
+(  1.199570e+08Hz,  9.816980e-03, -8.483560e-04)
+(  1.201610e+08Hz,  9.816840e-03, -8.499120e-04)
+(  1.203660e+08Hz,  9.816700e-03, -8.514720e-04)
+(  1.205710e+08Hz,  9.816560e-03, -8.530340e-04)
+(  1.207760e+08Hz,  9.816410e-03, -8.546000e-04)
+(  1.209810e+08Hz,  9.816270e-03, -8.561690e-04)
+(  1.211870e+08Hz,  9.816130e-03, -8.577410e-04)
+(  1.213940e+08Hz,  9.815990e-03, -8.593160e-04)
+(  1.216000e+08Hz,  9.815840e-03, -8.608940e-04)
+(  1.218070e+08Hz,  9.815700e-03, -8.624750e-04)
+(  1.220150e+08Hz,  9.815550e-03, -8.640600e-04)
+(  1.222220e+08Hz,  9.815400e-03, -8.656480e-04)
+(  1.224300e+08Hz,  9.815250e-03, -8.672390e-04)
+(  1.226390e+08Hz,  9.815100e-03, -8.688330e-04)
+(  1.228470e+08Hz,  9.814960e-03, -8.704300e-04)
+(  1.230560e+08Hz,  9.814800e-03, -8.720310e-04)
+(  1.232660e+08Hz,  9.814650e-03, -8.736340e-04)
+(  1.234760e+08Hz,  9.814500e-03, -8.752410e-04)
+(  1.236860e+08Hz,  9.814350e-03, -8.768520e-04)
+(  1.238960e+08Hz,  9.814190e-03, -8.784650e-04)
+(  1.241070e+08Hz,  9.814040e-03, -8.800820e-04)
+(  1.243180e+08Hz,  9.813880e-03, -8.817020e-04)
+(  1.245300e+08Hz,  9.813730e-03, -8.833250e-04)
+(  1.247420e+08Hz,  9.813570e-03, -8.849510e-04)
+(  1.249540e+08Hz,  9.813410e-03, -8.865810e-04)
+(  1.251670e+08Hz,  9.813250e-03, -8.882140e-04)
+(  1.253800e+08Hz,  9.813090e-03, -8.898500e-04)
+(  1.255930e+08Hz,  9.812930e-03, -8.914900e-04)
+(  1.258070e+08Hz,  9.812770e-03, -8.931330e-04)
+(  1.260210e+08Hz,  9.812600e-03, -8.947790e-04)
+(  1.262360e+08Hz,  9.812440e-03, -8.964290e-04)
+(  1.264510e+08Hz,  9.812270e-03, -8.980810e-04)
+(  1.266660e+08Hz,  9.812110e-03, -8.997380e-04)
+(  1.268820e+08Hz,  9.811940e-03, -9.013970e-04)
+(  1.270980e+08Hz,  9.811770e-03, -9.030600e-04)
+(  1.273140e+08Hz,  9.811600e-03, -9.047260e-04)
+(  1.275310e+08Hz,  9.811430e-03, -9.063960e-04)
+(  1.277480e+08Hz,  9.811260e-03, -9.080690e-04)
+(  1.279650e+08Hz,  9.811090e-03, -9.097450e-04)
+(  1.281830e+08Hz,  9.810920e-03, -9.114250e-04)
+(  1.284010e+08Hz,  9.810740e-03, -9.131080e-04)
+(  1.286200e+08Hz,  9.810570e-03, -9.147940e-04)
+(  1.288380e+08Hz,  9.810390e-03, -9.164840e-04)
+(  1.290580e+08Hz,  9.810210e-03, -9.181770e-04)
+(  1.292770e+08Hz,  9.810040e-03, -9.198740e-04)
+(  1.294970e+08Hz,  9.809860e-03, -9.215740e-04)
+(  1.297180e+08Hz,  9.809680e-03, -9.232780e-04)
+(  1.299390e+08Hz,  9.809500e-03, -9.249850e-04)
+(  1.301600e+08Hz,  9.809310e-03, -9.266950e-04)
+(  1.303810e+08Hz,  9.809130e-03, -9.284090e-04)
+(  1.306030e+08Hz,  9.808950e-03, -9.301270e-04)
+(  1.308260e+08Hz,  9.808760e-03, -9.318470e-04)
+(  1.310480e+08Hz,  9.808570e-03, -9.335720e-04)
+(  1.312710e+08Hz,  9.808390e-03, -9.352990e-04)
+(  1.314950e+08Hz,  9.808200e-03, -9.370310e-04)
+(  1.317190e+08Hz,  9.808010e-03, -9.387660e-04)
+(  1.319430e+08Hz,  9.807820e-03, -9.405040e-04)
+(  1.321670e+08Hz,  9.807620e-03, -9.422460e-04)
+(  1.323920e+08Hz,  9.807430e-03, -9.439910e-04)
+(  1.326180e+08Hz,  9.807240e-03, -9.457400e-04)
+(  1.328430e+08Hz,  9.807040e-03, -9.474920e-04)
+(  1.330690e+08Hz,  9.806850e-03, -9.492480e-04)
+(  1.332960e+08Hz,  9.806650e-03, -9.510080e-04)
+(  1.335230e+08Hz,  9.806450e-03, -9.527710e-04)
+(  1.337500e+08Hz,  9.806250e-03, -9.545380e-04)
+(  1.339780e+08Hz,  9.806050e-03, -9.563080e-04)
+(  1.342060e+08Hz,  9.805850e-03, -9.580820e-04)
+(  1.344340e+08Hz,  9.805640e-03, -9.598590e-04)
+(  1.346630e+08Hz,  9.805440e-03, -9.616400e-04)
+(  1.348920e+08Hz,  9.805230e-03, -9.634250e-04)
+(  1.351220e+08Hz,  9.805030e-03, -9.652130e-04)
+(  1.353520e+08Hz,  9.804820e-03, -9.670050e-04)
+(  1.355820e+08Hz,  9.804610e-03, -9.688000e-04)
+(  1.358130e+08Hz,  9.804400e-03, -9.705990e-04)
+(  1.360440e+08Hz,  9.804190e-03, -9.724020e-04)
+(  1.362760e+08Hz,  9.803970e-03, -9.742080e-04)
+(  1.365080e+08Hz,  9.803760e-03, -9.760180e-04)
+(  1.367400e+08Hz,  9.803540e-03, -9.778320e-04)
+(  1.369730e+08Hz,  9.803330e-03, -9.796500e-04)
+(  1.372060e+08Hz,  9.803110e-03, -9.814710e-04)
+(  1.374390e+08Hz,  9.802890e-03, -9.832960e-04)
+(  1.376730e+08Hz,  9.802670e-03, -9.851240e-04)
+(  1.379080e+08Hz,  9.802450e-03, -9.869560e-04)
+(  1.381420e+08Hz,  9.802220e-03, -9.887920e-04)
+(  1.383770e+08Hz,  9.802000e-03, -9.906320e-04)
+(  1.386130e+08Hz,  9.801770e-03, -9.924750e-04)
+(  1.388490e+08Hz,  9.801550e-03, -9.943220e-04)
+(  1.390850e+08Hz,  9.801320e-03, -9.961730e-04)
+(  1.393220e+08Hz,  9.801090e-03, -9.980280e-04)
+(  1.395590e+08Hz,  9.800860e-03, -9.998860e-04)
+(  1.397970e+08Hz,  9.800630e-03, -1.001750e-03)
+(  1.400340e+08Hz,  9.800390e-03, -1.003610e-03)
+(  1.402730e+08Hz,  9.800160e-03, -1.005480e-03)
+(  1.405120e+08Hz,  9.799920e-03, -1.007360e-03)
+(  1.407510e+08Hz,  9.799680e-03, -1.009230e-03)
+(  1.409900e+08Hz,  9.799440e-03, -1.011120e-03)
+(  1.412300e+08Hz,  9.799200e-03, -1.013000e-03)
+(  1.414710e+08Hz,  9.798960e-03, -1.014890e-03)
+(  1.417110e+08Hz,  9.798720e-03, -1.016780e-03)
+(  1.419530e+08Hz,  9.798470e-03, -1.018680e-03)
+(  1.421940e+08Hz,  9.798230e-03, -1.020580e-03)
+(  1.424360e+08Hz,  9.797980e-03, -1.022480e-03)
+(  1.426790e+08Hz,  9.797730e-03, -1.024390e-03)
+(  1.429220e+08Hz,  9.797480e-03, -1.026300e-03)
+(  1.431650e+08Hz,  9.797230e-03, -1.028220e-03)
+(  1.434080e+08Hz,  9.796980e-03, -1.030140e-03)
+(  1.436530e+08Hz,  9.796720e-03, -1.032060e-03)
+(  1.438970e+08Hz,  9.796470e-03, -1.033990e-03)
+(  1.441420e+08Hz,  9.796210e-03, -1.035920e-03)
+(  1.443870e+08Hz,  9.795950e-03, -1.037860e-03)
+(  1.446330e+08Hz,  9.795690e-03, -1.039800e-03)
+(  1.448790e+08Hz,  9.795430e-03, -1.041740e-03)
+(  1.451260e+08Hz,  9.795160e-03, -1.043690e-03)
+(  1.453730e+08Hz,  9.794900e-03, -1.045640e-03)
+(  1.456200e+08Hz,  9.794630e-03, -1.047590e-03)
+(  1.458680e+08Hz,  9.794360e-03, -1.049550e-03)
+(  1.461160e+08Hz,  9.794090e-03, -1.051520e-03)
+(  1.463650e+08Hz,  9.793820e-03, -1.053480e-03)
+(  1.466140e+08Hz,  9.793550e-03, -1.055450e-03)
+(  1.468640e+08Hz,  9.793270e-03, -1.057430e-03)
+(  1.471140e+08Hz,  9.793000e-03, -1.059410e-03)
+(  1.473640e+08Hz,  9.792720e-03, -1.061390e-03)
+(  1.476150e+08Hz,  9.792440e-03, -1.063380e-03)
+(  1.478660e+08Hz,  9.792160e-03, -1.065370e-03)
+(  1.481180e+08Hz,  9.791880e-03, -1.067360e-03)
+(  1.483700e+08Hz,  9.791590e-03, -1.069360e-03)
+(  1.486230e+08Hz,  9.791310e-03, -1.071370e-03)
+(  1.488750e+08Hz,  9.791020e-03, -1.073370e-03)
+(  1.491290e+08Hz,  9.790730e-03, -1.075390e-03)
+(  1.493830e+08Hz,  9.790440e-03, -1.077400e-03)
+(  1.496370e+08Hz,  9.790150e-03, -1.079420e-03)
+(  1.498920e+08Hz,  9.789850e-03, -1.081440e-03)
+(  1.501470e+08Hz,  9.789560e-03, -1.083470e-03)
+(  1.504020e+08Hz,  9.789260e-03, -1.085500e-03)
+(  1.506580e+08Hz,  9.788960e-03, -1.087540e-03)
+(  1.509150e+08Hz,  9.788660e-03, -1.089580e-03)
+(  1.511720e+08Hz,  9.788360e-03, -1.091630e-03)
+(  1.514290e+08Hz,  9.788050e-03, -1.093670e-03)
+(  1.516870e+08Hz,  9.787750e-03, -1.095730e-03)
+(  1.519450e+08Hz,  9.787440e-03, -1.097780e-03)
+(  1.522030e+08Hz,  9.787130e-03, -1.099850e-03)
+(  1.524620e+08Hz,  9.786820e-03, -1.101910e-03)
+(  1.527220e+08Hz,  9.786510e-03, -1.103980e-03)
+(  1.529820e+08Hz,  9.786190e-03, -1.106050e-03)
+(  1.532420e+08Hz,  9.785870e-03, -1.108130e-03)
+(  1.535030e+08Hz,  9.785550e-03, -1.110210e-03)
+(  1.537640e+08Hz,  9.785230e-03, -1.112300e-03)
+(  1.540260e+08Hz,  9.784910e-03, -1.114390e-03)
+(  1.542880e+08Hz,  9.784590e-03, -1.116490e-03)
+(  1.545510e+08Hz,  9.784260e-03, -1.118580e-03)
+(  1.548140e+08Hz,  9.783930e-03, -1.120690e-03)
+(  1.550770e+08Hz,  9.783600e-03, -1.122800e-03)
+(  1.553410e+08Hz,  9.783270e-03, -1.124910e-03)
+(  1.556060e+08Hz,  9.782940e-03, -1.127020e-03)
+(  1.558710e+08Hz,  9.782600e-03, -1.129140e-03)
+(  1.561360e+08Hz,  9.782260e-03, -1.131270e-03)
+(  1.564020e+08Hz,  9.781920e-03, -1.133400e-03)
+(  1.566680e+08Hz,  9.781580e-03, -1.135530e-03)
+(  1.569350e+08Hz,  9.781240e-03, -1.137670e-03)
+(  1.572020e+08Hz,  9.780890e-03, -1.139810e-03)
+(  1.574690e+08Hz,  9.780550e-03, -1.141960e-03)
+(  1.577370e+08Hz,  9.780200e-03, -1.144110e-03)
+(  1.580060e+08Hz,  9.779850e-03, -1.146260e-03)
+(  1.582750e+08Hz,  9.779490e-03, -1.148420e-03)
+(  1.585440e+08Hz,  9.779140e-03, -1.150590e-03)
+(  1.588140e+08Hz,  9.778780e-03, -1.152760e-03)
+(  1.590840e+08Hz,  9.778420e-03, -1.154930e-03)
+(  1.593550e+08Hz,  9.778060e-03, -1.157110e-03)
+(  1.596260e+08Hz,  9.777700e-03, -1.159290e-03)
+(  1.598980e+08Hz,  9.777330e-03, -1.161470e-03)
+(  1.601700e+08Hz,  9.776960e-03, -1.163660e-03)
+(  1.604430e+08Hz,  9.776590e-03, -1.165860e-03)
+(  1.607160e+08Hz,  9.776220e-03, -1.168060e-03)
+(  1.609890e+08Hz,  9.775850e-03, -1.170260e-03)
+(  1.612630e+08Hz,  9.775470e-03, -1.172470e-03)
+(  1.615380e+08Hz,  9.775090e-03, -1.174680e-03)
+(  1.618130e+08Hz,  9.774710e-03, -1.176900e-03)
+(  1.620880e+08Hz,  9.774330e-03, -1.179120e-03)
+(  1.623640e+08Hz,  9.773940e-03, -1.181350e-03)
+(  1.626400e+08Hz,  9.773550e-03, -1.183580e-03)
+(  1.629170e+08Hz,  9.773170e-03, -1.185810e-03)
+(  1.631940e+08Hz,  9.772770e-03, -1.188050e-03)
+(  1.634720e+08Hz,  9.772380e-03, -1.190300e-03)
+(  1.637500e+08Hz,  9.771980e-03, -1.192550e-03)
+(  1.640290e+08Hz,  9.771580e-03, -1.194800e-03)
+(  1.643080e+08Hz,  9.771180e-03, -1.197060e-03)
+(  1.645880e+08Hz,  9.770780e-03, -1.199320e-03)
+(  1.648680e+08Hz,  9.770380e-03, -1.201590e-03)
+(  1.651490e+08Hz,  9.769970e-03, -1.203860e-03)
+(  1.654300e+08Hz,  9.769560e-03, -1.206140e-03)
+(  1.657110e+08Hz,  9.769150e-03, -1.208420e-03)
+(  1.659930e+08Hz,  9.768730e-03, -1.210700e-03)
+(  1.662760e+08Hz,  9.768310e-03, -1.212990e-03)
+(  1.665590e+08Hz,  9.767890e-03, -1.215290e-03)
+(  1.668430e+08Hz,  9.767470e-03, -1.217590e-03)
+(  1.671260e+08Hz,  9.767050e-03, -1.219890e-03)
+(  1.674110e+08Hz,  9.766620e-03, -1.222200e-03)
+(  1.676960e+08Hz,  9.766190e-03, -1.224510e-03)
+(  1.679810e+08Hz,  9.765760e-03, -1.226830e-03)
+(  1.682670e+08Hz,  9.765330e-03, -1.229150e-03)
+(  1.685540e+08Hz,  9.764890e-03, -1.231480e-03)
+(  1.688410e+08Hz,  9.764450e-03, -1.233810e-03)
+(  1.691280e+08Hz,  9.764010e-03, -1.236150e-03)
+(  1.694160e+08Hz,  9.763570e-03, -1.238490e-03)
+(  1.697040e+08Hz,  9.763120e-03, -1.240840e-03)
+(  1.699930e+08Hz,  9.762670e-03, -1.243190e-03)
+(  1.702820e+08Hz,  9.762220e-03, -1.245540e-03)
+(  1.705720e+08Hz,  9.761760e-03, -1.247900e-03)
+(  1.708620e+08Hz,  9.761310e-03, -1.250270e-03)
+(  1.711530e+08Hz,  9.760850e-03, -1.252640e-03)
+(  1.714450e+08Hz,  9.760390e-03, -1.255010e-03)
+(  1.717360e+08Hz,  9.759920e-03, -1.257390e-03)
+(  1.720290e+08Hz,  9.759450e-03, -1.259780e-03)
+(  1.723210e+08Hz,  9.758980e-03, -1.262170e-03)
+(  1.726150e+08Hz,  9.758510e-03, -1.264560e-03)
+(  1.729090e+08Hz,  9.758040e-03, -1.266960e-03)
+(  1.732030e+08Hz,  9.757560e-03, -1.269360e-03)
+(  1.734980e+08Hz,  9.757080e-03, -1.271770e-03)
+(  1.737930e+08Hz,  9.756590e-03, -1.274180e-03)
+(  1.740890e+08Hz,  9.756110e-03, -1.276600e-03)
+(  1.743850e+08Hz,  9.755620e-03, -1.279030e-03)
+(  1.746820e+08Hz,  9.755130e-03, -1.281450e-03)
+(  1.749790e+08Hz,  9.754630e-03, -1.283890e-03)
+(  1.752770e+08Hz,  9.754140e-03, -1.286320e-03)
+(  1.755750e+08Hz,  9.753640e-03, -1.288770e-03)
+(  1.758740e+08Hz,  9.753130e-03, -1.291210e-03)
+(  1.761740e+08Hz,  9.752630e-03, -1.293660e-03)
+(  1.764730e+08Hz,  9.752120e-03, -1.296120e-03)
+(  1.767740e+08Hz,  9.751610e-03, -1.298580e-03)
+(  1.770750e+08Hz,  9.751090e-03, -1.301050e-03)
+(  1.773760e+08Hz,  9.750580e-03, -1.303520e-03)
+(  1.776780e+08Hz,  9.750060e-03, -1.306000e-03)
+(  1.779800e+08Hz,  9.749530e-03, -1.308480e-03)
+(  1.782830e+08Hz,  9.749010e-03, -1.310970e-03)
+(  1.785870e+08Hz,  9.748480e-03, -1.313460e-03)
+(  1.788910e+08Hz,  9.747940e-03, -1.315960e-03)
+(  1.791950e+08Hz,  9.747410e-03, -1.318460e-03)
+(  1.795000e+08Hz,  9.746870e-03, -1.320960e-03)
+(  1.798060e+08Hz,  9.746330e-03, -1.323470e-03)
+(  1.801120e+08Hz,  9.745790e-03, -1.325990e-03)
+(  1.804180e+08Hz,  9.745240e-03, -1.328510e-03)
+(  1.807250e+08Hz,  9.744690e-03, -1.331040e-03)
+(  1.810330e+08Hz,  9.744130e-03, -1.333570e-03)
+(  1.813410e+08Hz,  9.743580e-03, -1.336110e-03)
+(  1.816500e+08Hz,  9.743020e-03, -1.338650e-03)
+(  1.819590e+08Hz,  9.742460e-03, -1.341200e-03)
+(  1.822690e+08Hz,  9.741890e-03, -1.343750e-03)
+(  1.825790e+08Hz,  9.741320e-03, -1.346300e-03)
+(  1.828900e+08Hz,  9.740750e-03, -1.348870e-03)
+(  1.832010e+08Hz,  9.740170e-03, -1.351430e-03)
+(  1.835130e+08Hz,  9.739590e-03, -1.354010e-03)
+(  1.838250e+08Hz,  9.739010e-03, -1.356580e-03)
+(  1.841380e+08Hz,  9.738420e-03, -1.359160e-03)
+(  1.844510e+08Hz,  9.737840e-03, -1.361750e-03)
+(  1.847650e+08Hz,  9.737240e-03, -1.364340e-03)
+(  1.850800e+08Hz,  9.736650e-03, -1.366940e-03)
+(  1.853950e+08Hz,  9.736050e-03, -1.369550e-03)
+(  1.857100e+08Hz,  9.735450e-03, -1.372150e-03)
+(  1.860260e+08Hz,  9.734840e-03, -1.374770e-03)
+(  1.863430e+08Hz,  9.734230e-03, -1.377380e-03)
+(  1.866600e+08Hz,  9.733620e-03, -1.380010e-03)
+(  1.869780e+08Hz,  9.733000e-03, -1.382640e-03)
+(  1.872960e+08Hz,  9.732390e-03, -1.385270e-03)
+(  1.876150e+08Hz,  9.731760e-03, -1.387910e-03)
+(  1.879340e+08Hz,  9.731140e-03, -1.390550e-03)
+(  1.882540e+08Hz,  9.730510e-03, -1.393200e-03)
+(  1.885750e+08Hz,  9.729870e-03, -1.395860e-03)
+(  1.888960e+08Hz,  9.729240e-03, -1.398520e-03)
+(  1.892170e+08Hz,  9.728600e-03, -1.401180e-03)
+(  1.895390e+08Hz,  9.727950e-03, -1.403850e-03)
+(  1.898620e+08Hz,  9.727310e-03, -1.406530e-03)
+(  1.901850e+08Hz,  9.726650e-03, -1.409210e-03)
+(  1.905090e+08Hz,  9.726000e-03, -1.411890e-03)
+(  1.908330e+08Hz,  9.725340e-03, -1.414590e-03)
+(  1.911580e+08Hz,  9.724680e-03, -1.417280e-03)
+(  1.914830e+08Hz,  9.724010e-03, -1.419980e-03)
+(  1.918090e+08Hz,  9.723340e-03, -1.422690e-03)
+(  1.921350e+08Hz,  9.722670e-03, -1.425400e-03)
+(  1.924620e+08Hz,  9.721990e-03, -1.428120e-03)
+(  1.927900e+08Hz,  9.721310e-03, -1.430840e-03)
+(  1.931180e+08Hz,  9.720630e-03, -1.433570e-03)
+(  1.934470e+08Hz,  9.719940e-03, -1.436310e-03)
+(  1.937760e+08Hz,  9.719250e-03, -1.439040e-03)
+(  1.941060e+08Hz,  9.718550e-03, -1.441790e-03)
+(  1.944360e+08Hz,  9.717850e-03, -1.444540e-03)
+(  1.947670e+08Hz,  9.717150e-03, -1.447290e-03)
+(  1.950990e+08Hz,  9.716440e-03, -1.450050e-03)
+(  1.954310e+08Hz,  9.715730e-03, -1.452820e-03)
+(  1.957630e+08Hz,  9.715010e-03, -1.455590e-03)
+(  1.960970e+08Hz,  9.714290e-03, -1.458370e-03)
+(  1.964300e+08Hz,  9.713570e-03, -1.461150e-03)
+(  1.967650e+08Hz,  9.712840e-03, -1.463940e-03)
+(  1.971000e+08Hz,  9.712110e-03, -1.466730e-03)
+(  1.974350e+08Hz,  9.711380e-03, -1.469530e-03)
+(  1.977710e+08Hz,  9.710640e-03, -1.472330e-03)
+(  1.981080e+08Hz,  9.709890e-03, -1.475140e-03)
+(  1.984450e+08Hz,  9.709140e-03, -1.477950e-03)
+(  1.987830e+08Hz,  9.708390e-03, -1.480770e-03)
+(  1.991210e+08Hz,  9.707640e-03, -1.483600e-03)
+(  1.994600e+08Hz,  9.706880e-03, -1.486430e-03)
+(  1.997990e+08Hz,  9.706110e-03, -1.489260e-03)
+(  2.001390e+08Hz,  9.705340e-03, -1.492110e-03)
+(  2.004800e+08Hz,  9.704570e-03, -1.494950e-03)
+(  2.008210e+08Hz,  9.703790e-03, -1.497800e-03)
+(  2.011630e+08Hz,  9.703010e-03, -1.500660e-03)
+(  2.015060e+08Hz,  9.702220e-03, -1.503530e-03)
+(  2.018490e+08Hz,  9.701430e-03, -1.506390e-03)
+(  2.021920e+08Hz,  9.700640e-03, -1.509270e-03)
+(  2.025360e+08Hz,  9.699840e-03, -1.512150e-03)
+(  2.028810e+08Hz,  9.699040e-03, -1.515030e-03)
+(  2.032260e+08Hz,  9.698230e-03, -1.517920e-03)
+(  2.035720e+08Hz,  9.697420e-03, -1.520820e-03)
+(  2.039190e+08Hz,  9.696600e-03, -1.523720e-03)
+(  2.042660e+08Hz,  9.695780e-03, -1.526630e-03)
+(  2.046130e+08Hz,  9.694950e-03, -1.529540e-03)
+(  2.049620e+08Hz,  9.694120e-03, -1.532460e-03)
+(  2.053100e+08Hz,  9.693290e-03, -1.535380e-03)
+(  2.056600e+08Hz,  9.692450e-03, -1.538310e-03)
+(  2.060100e+08Hz,  9.691600e-03, -1.541250e-03)
+(  2.063610e+08Hz,  9.690760e-03, -1.544190e-03)
+(  2.067120e+08Hz,  9.689900e-03, -1.547130e-03)
+(  2.070640e+08Hz,  9.689040e-03, -1.550090e-03)
+(  2.074160e+08Hz,  9.688180e-03, -1.553040e-03)
+(  2.077690e+08Hz,  9.687310e-03, -1.556010e-03)
+(  2.081230e+08Hz,  9.686440e-03, -1.558970e-03)
+(  2.084770e+08Hz,  9.685570e-03, -1.561950e-03)
+(  2.088320e+08Hz,  9.684680e-03, -1.564930e-03)
+(  2.091870e+08Hz,  9.683800e-03, -1.567910e-03)
+(  2.095430e+08Hz,  9.682910e-03, -1.570900e-03)
+(  2.099000e+08Hz,  9.682010e-03, -1.573900e-03)
+(  2.102570e+08Hz,  9.681110e-03, -1.576900e-03)
+(  2.106150e+08Hz,  9.680200e-03, -1.579910e-03)
+(  2.109740e+08Hz,  9.679290e-03, -1.582920e-03)
+(  2.113330e+08Hz,  9.678380e-03, -1.585940e-03)
+(  2.116920e+08Hz,  9.677460e-03, -1.588960e-03)
+(  2.120530e+08Hz,  9.676530e-03, -1.591990e-03)
+(  2.124140e+08Hz,  9.675600e-03, -1.595030e-03)
+(  2.127750e+08Hz,  9.674660e-03, -1.598070e-03)
+(  2.131370e+08Hz,  9.673720e-03, -1.601120e-03)
+(  2.135000e+08Hz,  9.672780e-03, -1.604170e-03)
+(  2.138630e+08Hz,  9.671820e-03, -1.607230e-03)
+(  2.142270e+08Hz,  9.670870e-03, -1.610290e-03)
+(  2.145920e+08Hz,  9.669910e-03, -1.613360e-03)
+(  2.149570e+08Hz,  9.668940e-03, -1.616440e-03)
+(  2.153230e+08Hz,  9.667970e-03, -1.619520e-03)
+(  2.156900e+08Hz,  9.666990e-03, -1.622610e-03)
+(  2.160570e+08Hz,  9.666010e-03, -1.625700e-03)
+(  2.164250e+08Hz,  9.665020e-03, -1.628800e-03)
+(  2.167930e+08Hz,  9.664030e-03, -1.631900e-03)
+(  2.171620e+08Hz,  9.663030e-03, -1.635010e-03)
+(  2.175320e+08Hz,  9.662020e-03, -1.638120e-03)
+(  2.179020e+08Hz,  9.661010e-03, -1.641240e-03)
+(  2.182730e+08Hz,  9.660000e-03, -1.644370e-03)
+(  2.186440e+08Hz,  9.658980e-03, -1.647500e-03)
+(  2.190160e+08Hz,  9.657950e-03, -1.650640e-03)
+(  2.193890e+08Hz,  9.656920e-03, -1.653780e-03)
+(  2.197620e+08Hz,  9.655880e-03, -1.656930e-03)
+(  2.201370e+08Hz,  9.654840e-03, -1.660090e-03)
+(  2.205110e+08Hz,  9.653790e-03, -1.663250e-03)
+(  2.208870e+08Hz,  9.652740e-03, -1.666410e-03)
+(  2.212620e+08Hz,  9.651680e-03, -1.669590e-03)
+(  2.216390e+08Hz,  9.650620e-03, -1.672760e-03)
+(  2.220160e+08Hz,  9.649540e-03, -1.675950e-03)
+(  2.223940e+08Hz,  9.648470e-03, -1.679140e-03)
+(  2.227730e+08Hz,  9.647390e-03, -1.682330e-03)
+(  2.231520e+08Hz,  9.646300e-03, -1.685530e-03)
+(  2.235320e+08Hz,  9.645200e-03, -1.688740e-03)
+(  2.239120e+08Hz,  9.644100e-03, -1.691950e-03)
+(  2.242930e+08Hz,  9.643000e-03, -1.695170e-03)
+(  2.246750e+08Hz,  9.641890e-03, -1.698390e-03)
+(  2.250570e+08Hz,  9.640770e-03, -1.701620e-03)
+(  2.254410e+08Hz,  9.639650e-03, -1.704860e-03)
+(  2.258240e+08Hz,  9.638520e-03, -1.708100e-03)
+(  2.262090e+08Hz,  9.637380e-03, -1.711340e-03)
+(  2.265940e+08Hz,  9.636240e-03, -1.714600e-03)
+(  2.269790e+08Hz,  9.635090e-03, -1.717850e-03)
+(  2.273660e+08Hz,  9.633940e-03, -1.721120e-03)
+(  2.277530e+08Hz,  9.632780e-03, -1.724390e-03)
+(  2.281400e+08Hz,  9.631610e-03, -1.727660e-03)
+(  2.285290e+08Hz,  9.630440e-03, -1.730940e-03)
+(  2.289180e+08Hz,  9.629260e-03, -1.734230e-03)
+(  2.293070e+08Hz,  9.628080e-03, -1.737520e-03)
+(  2.296970e+08Hz,  9.626890e-03, -1.740820e-03)
+(  2.300880e+08Hz,  9.625690e-03, -1.744130e-03)
+(  2.304800e+08Hz,  9.624480e-03, -1.747440e-03)
+(  2.308720e+08Hz,  9.623270e-03, -1.750750e-03)
+(  2.312650e+08Hz,  9.622060e-03, -1.754070e-03)
+(  2.316590e+08Hz,  9.620830e-03, -1.757400e-03)
+(  2.320530e+08Hz,  9.619610e-03, -1.760730e-03)
+(  2.324480e+08Hz,  9.618370e-03, -1.764070e-03)
+(  2.328440e+08Hz,  9.617130e-03, -1.767420e-03)
+(  2.332400e+08Hz,  9.615880e-03, -1.770770e-03)
+(  2.336370e+08Hz,  9.614620e-03, -1.774120e-03)
+(  2.340350e+08Hz,  9.613360e-03, -1.777480e-03)
+(  2.344330e+08Hz,  9.612090e-03, -1.780850e-03)
+(  2.348320e+08Hz,  9.610820e-03, -1.784230e-03)
+(  2.352320e+08Hz,  9.609530e-03, -1.787600e-03)
+(  2.356320e+08Hz,  9.608250e-03, -1.790990e-03)
+(  2.360330e+08Hz,  9.606950e-03, -1.794380e-03)
+(  2.364350e+08Hz,  9.605650e-03, -1.797780e-03)
+(  2.368370e+08Hz,  9.604340e-03, -1.801180e-03)
+(  2.372400e+08Hz,  9.603020e-03, -1.804590e-03)
+(  2.376440e+08Hz,  9.601700e-03, -1.808000e-03)
+(  2.380490e+08Hz,  9.600370e-03, -1.811420e-03)
+(  2.384540e+08Hz,  9.599030e-03, -1.814840e-03)
+(  2.388600e+08Hz,  9.597690e-03, -1.818280e-03)
+(  2.392660e+08Hz,  9.596340e-03, -1.821710e-03)
+(  2.396740e+08Hz,  9.594980e-03, -1.825150e-03)
+(  2.400820e+08Hz,  9.593610e-03, -1.828600e-03)
+(  2.404900e+08Hz,  9.592240e-03, -1.832060e-03)
+(  2.408990e+08Hz,  9.590860e-03, -1.835520e-03)
+(  2.413090e+08Hz,  9.589480e-03, -1.838980e-03)
+(  2.417200e+08Hz,  9.588080e-03, -1.842450e-03)
+(  2.421320e+08Hz,  9.586680e-03, -1.845930e-03)
+(  2.425440e+08Hz,  9.585270e-03, -1.849410e-03)
+(  2.429570e+08Hz,  9.583860e-03, -1.852900e-03)
+(  2.433700e+08Hz,  9.582440e-03, -1.856400e-03)
+(  2.437840e+08Hz,  9.581010e-03, -1.859890e-03)
+(  2.441990e+08Hz,  9.579570e-03, -1.863400e-03)
+(  2.446150e+08Hz,  9.578120e-03, -1.866910e-03)
+(  2.450310e+08Hz,  9.576670e-03, -1.870430e-03)
+(  2.454480e+08Hz,  9.575210e-03, -1.873950e-03)
+(  2.458660e+08Hz,  9.573740e-03, -1.877480e-03)
+(  2.462850e+08Hz,  9.572270e-03, -1.881010e-03)
+(  2.467040e+08Hz,  9.570780e-03, -1.884550e-03)
+(  2.471240e+08Hz,  9.569290e-03, -1.888100e-03)
+(  2.475440e+08Hz,  9.567800e-03, -1.891650e-03)
+(  2.479660e+08Hz,  9.566290e-03, -1.895210e-03)
+(  2.483880e+08Hz,  9.564780e-03, -1.898770e-03)
+(  2.488100e+08Hz,  9.563250e-03, -1.902340e-03)
+(  2.492340e+08Hz,  9.561730e-03, -1.905910e-03)
+(  2.496580e+08Hz,  9.560190e-03, -1.909490e-03)
+(  2.500830e+08Hz,  9.558640e-03, -1.913080e-03)
+(  2.505090e+08Hz,  9.557090e-03, -1.916670e-03)
+(  2.509350e+08Hz,  9.555530e-03, -1.920260e-03)
+(  2.513620e+08Hz,  9.553960e-03, -1.923870e-03)
+(  2.517900e+08Hz,  9.552380e-03, -1.927470e-03)
+(  2.522190e+08Hz,  9.550800e-03, -1.931090e-03)
+(  2.526480e+08Hz,  9.549210e-03, -1.934710e-03)
+(  2.530780e+08Hz,  9.547600e-03, -1.938330e-03)
+(  2.535090e+08Hz,  9.546000e-03, -1.941960e-03)
+(  2.539400e+08Hz,  9.544380e-03, -1.945600e-03)
+(  2.543720e+08Hz,  9.542750e-03, -1.949240e-03)
+(  2.548050e+08Hz,  9.541120e-03, -1.952890e-03)
+(  2.552390e+08Hz,  9.539480e-03, -1.956540e-03)
+(  2.556730e+08Hz,  9.537830e-03, -1.960200e-03)
+(  2.561090e+08Hz,  9.536170e-03, -1.963860e-03)
+(  2.565440e+08Hz,  9.534500e-03, -1.967530e-03)
+(  2.569810e+08Hz,  9.532820e-03, -1.971210e-03)
+(  2.574180e+08Hz,  9.531140e-03, -1.974890e-03)
+(  2.578570e+08Hz,  9.529450e-03, -1.978570e-03)
+(  2.582950e+08Hz,  9.527740e-03, -1.982270e-03)
+(  2.587350e+08Hz,  9.526030e-03, -1.985960e-03)
+(  2.591760e+08Hz,  9.524320e-03, -1.989670e-03)
+(  2.596170e+08Hz,  9.522590e-03, -1.993380e-03)
+(  2.600590e+08Hz,  9.520850e-03, -1.997090e-03)
+(  2.605010e+08Hz,  9.519110e-03, -2.000810e-03)
+(  2.609450e+08Hz,  9.517350e-03, -2.004530e-03)
+(  2.613890e+08Hz,  9.515590e-03, -2.008260e-03)
+(  2.618340e+08Hz,  9.513820e-03, -2.012000e-03)
+(  2.622790e+08Hz,  9.512040e-03, -2.015740e-03)
+(  2.627260e+08Hz,  9.510250e-03, -2.019490e-03)
+(  2.631730e+08Hz,  9.508450e-03, -2.023240e-03)
+(  2.636210e+08Hz,  9.506650e-03, -2.027000e-03)
+(  2.640690e+08Hz,  9.504830e-03, -2.030760e-03)
+(  2.645190e+08Hz,  9.503000e-03, -2.034530e-03)
+(  2.649690e+08Hz,  9.501170e-03, -2.038310e-03)
+(  2.654200e+08Hz,  9.499330e-03, -2.042090e-03)
+(  2.658720e+08Hz,  9.497470e-03, -2.045870e-03)
+(  2.663240e+08Hz,  9.495610e-03, -2.049660e-03)
+(  2.667780e+08Hz,  9.493740e-03, -2.053460e-03)
+(  2.672320e+08Hz,  9.491860e-03, -2.057260e-03)
+(  2.676870e+08Hz,  9.489970e-03, -2.061060e-03)