.SUBCKT parameters  1 2 3 4 5
* Pin 5 is the reference plane (usually it should be connected to GND)
* HZ S RI R 50
* Z1 = 50 Z2 = 50 Z3 = 50 Z4 = 50
R1N 1 100 -5.000000e+01
R1P 100 5 100.000000
R2N 2 200 -5.000000e+01
R2P 200 5 100.000000
R3N 3 300 -5.000000e+01
R3P 300 5 100.000000
R4N 4 400 -5.000000e+01
R4P 400 5 100.000000

* S11 FREQ R_I
 G0101 5 100 FREQ {V(100,5)}= R_I
+(  1.000000e+08Hz,  9.934270e-03, -7.727420e-04)
+(  1.001700e+08Hz,  9.934010e-03, -7.740320e-04)
+(  1.003410e+08Hz,  9.933750e-03, -7.753240e-04)
+(  1.005110e+08Hz,  9.933490e-03, -7.766170e-04)
+(  1.006830e+08Hz,  9.933220e-03, -7.779130e-04)
+(  1.008540e+08Hz,  9.932960e-03, -7.792110e-04)
+(  1.010260e+08Hz,  9.932690e-03, -7.805110e-04)
+(  1.011980e+08Hz,  9.932430e-03, -7.818130e-04)
+(  1.013700e+08Hz,  9.932160e-03, -7.831170e-04)
+(  1.015420e+08Hz,  9.931890e-03, -7.844230e-04)
+(  1.017150e+08Hz,  9.931620e-03, -7.857310e-04)
+(  1.018880e+08Hz,  9.931350e-03, -7.870420e-04)
+(  1.020620e+08Hz,  9.931080e-03, -7.883540e-04)
+(  1.022350e+08Hz,  9.930810e-03, -7.896690e-04)
+(  1.024090e+08Hz,  9.930540e-03, -7.909850e-04)
+(  1.025840e+08Hz,  9.930270e-03, -7.923040e-04)
+(  1.027580e+08Hz,  9.929990e-03, -7.936250e-04)
+(  1.029330e+08Hz,  9.929720e-03, -7.949480e-04)
+(  1.031080e+08Hz,  9.929440e-03, -7.962730e-04)
+(  1.032840e+08Hz,  9.929160e-03, -7.976000e-04)
+(  1.034600e+08Hz,  9.928890e-03, -7.989290e-04)
+(  1.036360e+08Hz,  9.928610e-03, -8.002610e-04)
+(  1.038120e+08Hz,  9.928330e-03, -8.015940e-04)
+(  1.039890e+08Hz,  9.928050e-03, -8.029300e-04)
+(  1.041660e+08Hz,  9.927770e-03, -8.042680e-04)
+(  1.043430e+08Hz,  9.927480e-03, -8.056080e-04)
+(  1.045210e+08Hz,  9.927200e-03, -8.069500e-04)
+(  1.046990e+08Hz,  9.926920e-03, -8.082940e-04)
+(  1.048770e+08Hz,  9.926630e-03, -8.096410e-04)
+(  1.050550e+08Hz,  9.926350e-03, -8.109890e-04)
+(  1.052340e+08Hz,  9.926060e-03, -8.123400e-04)
+(  1.054130e+08Hz,  9.925770e-03, -8.136930e-04)
+(  1.055930e+08Hz,  9.925480e-03, -8.150480e-04)
+(  1.057720e+08Hz,  9.925190e-03, -8.164050e-04)
+(  1.059520e+08Hz,  9.924900e-03, -8.177640e-04)
+(  1.061330e+08Hz,  9.924610e-03, -8.191260e-04)
+(  1.063130e+08Hz,  9.924320e-03, -8.204890e-04)
+(  1.064940e+08Hz,  9.924020e-03, -8.218550e-04)
+(  1.066760e+08Hz,  9.923730e-03, -8.232230e-04)
+(  1.068570e+08Hz,  9.923430e-03, -8.245930e-04)
+(  1.070390e+08Hz,  9.923130e-03, -8.259660e-04)
+(  1.072210e+08Hz,  9.922840e-03, -8.273400e-04)
+(  1.074040e+08Hz,  9.922540e-03, -8.287170e-04)
+(  1.075870e+08Hz,  9.922240e-03, -8.300960e-04)
+(  1.077700e+08Hz,  9.921940e-03, -8.314770e-04)
+(  1.079530e+08Hz,  9.921640e-03, -8.328600e-04)
+(  1.081370e+08Hz,  9.921330e-03, -8.342460e-04)
+(  1.083210e+08Hz,  9.921030e-03, -8.356330e-04)
+(  1.085050e+08Hz,  9.920720e-03, -8.370230e-04)
+(  1.086900e+08Hz,  9.920420e-03, -8.384150e-04)
+(  1.088750e+08Hz,  9.920110e-03, -8.398100e-04)
+(  1.090600e+08Hz,  9.919800e-03, -8.412060e-04)
+(  1.092460e+08Hz,  9.919490e-03, -8.426050e-04)
+(  1.094320e+08Hz,  9.919190e-03, -8.440060e-04)
+(  1.096180e+08Hz,  9.918870e-03, -8.454090e-04)
+(  1.098050e+08Hz,  9.918560e-03, -8.468140e-04)
+(  1.099920e+08Hz,  9.918250e-03, -8.482220e-04)
+(  1.101790e+08Hz,  9.917940e-03, -8.496320e-04)
+(  1.103660e+08Hz,  9.917620e-03, -8.510440e-04)
+(  1.105540e+08Hz,  9.917300e-03, -8.524580e-04)
+(  1.107420e+08Hz,  9.916990e-03, -8.538750e-04)
+(  1.109310e+08Hz,  9.916670e-03, -8.552940e-04)
+(  1.111200e+08Hz,  9.916350e-03, -8.567150e-04)
+(  1.113090e+08Hz,  9.916030e-03, -8.581380e-04)
+(  1.114980e+08Hz,  9.915710e-03, -8.595630e-04)
+(  1.116880e+08Hz,  9.915390e-03, -8.609910e-04)
+(  1.118780e+08Hz,  9.915060e-03, -8.624210e-04)
+(  1.120690e+08Hz,  9.914740e-03, -8.638540e-04)
+(  1.122590e+08Hz,  9.914410e-03, -8.652880e-04)
+(  1.124500e+08Hz,  9.914090e-03, -8.667250e-04)
+(  1.126420e+08Hz,  9.913760e-03, -8.681640e-04)
+(  1.128330e+08Hz,  9.913430e-03, -8.696060e-04)
+(  1.130250e+08Hz,  9.913100e-03, -8.710490e-04)
+(  1.132180e+08Hz,  9.912770e-03, -8.724950e-04)
+(  1.134110e+08Hz,  9.912440e-03, -8.739430e-04)
+(  1.136040e+08Hz,  9.912100e-03, -8.753940e-04)
+(  1.137970e+08Hz,  9.911770e-03, -8.768470e-04)
+(  1.139910e+08Hz,  9.911430e-03, -8.783020e-04)
+(  1.141850e+08Hz,  9.911100e-03, -8.797590e-04)
+(  1.143790e+08Hz,  9.910760e-03, -8.812190e-04)
+(  1.145740e+08Hz,  9.910420e-03, -8.826810e-04)
+(  1.147690e+08Hz,  9.910080e-03, -8.841450e-04)
+(  1.149640e+08Hz,  9.909740e-03, -8.856120e-04)
+(  1.151600e+08Hz,  9.909400e-03, -8.870810e-04)
+(  1.153560e+08Hz,  9.909060e-03, -8.885520e-04)
+(  1.155520e+08Hz,  9.908710e-03, -8.900250e-04)
+(  1.157490e+08Hz,  9.908370e-03, -8.915010e-04)
+(  1.159460e+08Hz,  9.908020e-03, -8.929790e-04)
+(  1.161430e+08Hz,  9.907670e-03, -8.944600e-04)
+(  1.163410e+08Hz,  9.907320e-03, -8.959430e-04)
+(  1.165390e+08Hz,  9.906970e-03, -8.974280e-04)
+(  1.167370e+08Hz,  9.906620e-03, -8.989150e-04)
+(  1.169360e+08Hz,  9.906270e-03, -9.004050e-04)
+(  1.171350e+08Hz,  9.905920e-03, -9.018970e-04)
+(  1.173340e+08Hz,  9.905560e-03, -9.033920e-04)
+(  1.175340e+08Hz,  9.905210e-03, -9.048880e-04)
+(  1.177340e+08Hz,  9.904850e-03, -9.063880e-04)
+(  1.179340e+08Hz,  9.904490e-03, -9.078890e-04)
+(  1.181350e+08Hz,  9.904130e-03, -9.093930e-04)
+(  1.183360e+08Hz,  9.903770e-03, -9.108990e-04)
+(  1.185380e+08Hz,  9.903410e-03, -9.124080e-04)
+(  1.187390e+08Hz,  9.903050e-03, -9.139190e-04)
+(  1.189410e+08Hz,  9.902680e-03, -9.154320e-04)
+(  1.191440e+08Hz,  9.902320e-03, -9.169480e-04)
+(  1.193470e+08Hz,  9.901950e-03, -9.184660e-04)
+(  1.195500e+08Hz,  9.901580e-03, -9.199860e-04)
+(  1.197530e+08Hz,  9.901210e-03, -9.215090e-04)
+(  1.199570e+08Hz,  9.900840e-03, -9.230340e-04)
+(  1.201610e+08Hz,  9.900470e-03, -9.245620e-04)
+(  1.203660e+08Hz,  9.900100e-03, -9.260920e-04)
+(  1.205710e+08Hz,  9.899730e-03, -9.276240e-04)
+(  1.207760e+08Hz,  9.899350e-03, -9.291590e-04)
+(  1.209810e+08Hz,  9.898980e-03, -9.306960e-04)
+(  1.211870e+08Hz,  9.898600e-03, -9.322360e-04)
+(  1.213940e+08Hz,  9.898220e-03, -9.337780e-04)
+(  1.216000e+08Hz,  9.897840e-03, -9.353220e-04)
+(  1.218070e+08Hz,  9.897460e-03, -9.368690e-04)
+(  1.220150e+08Hz,  9.897080e-03, -9.384180e-04)
+(  1.222220e+08Hz,  9.896690e-03, -9.399700e-04)
+(  1.224300e+08Hz,  9.896310e-03, -9.415240e-04)
+(  1.226390e+08Hz,  9.895920e-03, -9.430800e-04)
+(  1.228470e+08Hz,  9.895530e-03, -9.446390e-04)
+(  1.230560e+08Hz,  9.895140e-03, -9.462000e-04)
+(  1.232660e+08Hz,  9.894750e-03, -9.477640e-04)
+(  1.234760e+08Hz,  9.894360e-03, -9.493300e-04)
+(  1.236860e+08Hz,  9.893970e-03, -9.508990e-04)
+(  1.238960e+08Hz,  9.893580e-03, -9.524700e-04)
+(  1.241070e+08Hz,  9.893180e-03, -9.540430e-04)
+(  1.243180e+08Hz,  9.892790e-03, -9.556190e-04)
+(  1.245300e+08Hz,  9.892390e-03, -9.571980e-04)
+(  1.247420e+08Hz,  9.891990e-03, -9.587790e-04)
+(  1.249540e+08Hz,  9.891590e-03, -9.603620e-04)
+(  1.251670e+08Hz,  9.891190e-03, -9.619480e-04)
+(  1.253800e+08Hz,  9.890780e-03, -9.635360e-04)
+(  1.255930e+08Hz,  9.890380e-03, -9.651260e-04)
+(  1.258070e+08Hz,  9.889970e-03, -9.667200e-04)
+(  1.260210e+08Hz,  9.889570e-03, -9.683150e-04)
+(  1.262360e+08Hz,  9.889160e-03, -9.699130e-04)
+(  1.264510e+08Hz,  9.888750e-03, -9.715140e-04)
+(  1.266660e+08Hz,  9.888340e-03, -9.731170e-04)
+(  1.268820e+08Hz,  9.887920e-03, -9.747220e-04)
+(  1.270980e+08Hz,  9.887510e-03, -9.763300e-04)
+(  1.273140e+08Hz,  9.887100e-03, -9.779410e-04)
+(  1.275310e+08Hz,  9.886680e-03, -9.795540e-04)
+(  1.277480e+08Hz,  9.886260e-03, -9.811690e-04)
+(  1.279650e+08Hz,  9.885840e-03, -9.827870e-04)
+(  1.281830e+08Hz,  9.885420e-03, -9.844080e-04)
+(  1.284010e+08Hz,  9.885000e-03, -9.860310e-04)
+(  1.286200e+08Hz,  9.884580e-03, -9.876560e-04)
+(  1.288380e+08Hz,  9.884150e-03, -9.892840e-04)
+(  1.290580e+08Hz,  9.883730e-03, -9.909150e-04)
+(  1.292770e+08Hz,  9.883300e-03, -9.925480e-04)
+(  1.294970e+08Hz,  9.882870e-03, -9.941830e-04)
+(  1.297180e+08Hz,  9.882440e-03, -9.958210e-04)
+(  1.299390e+08Hz,  9.882010e-03, -9.974620e-04)
+(  1.301600e+08Hz,  9.881570e-03, -9.991050e-04)
+(  1.303810e+08Hz,  9.881140e-03, -1.000750e-03)
+(  1.306030e+08Hz,  9.880700e-03, -1.002400e-03)
+(  1.308260e+08Hz,  9.880270e-03, -1.004050e-03)
+(  1.310480e+08Hz,  9.879830e-03, -1.005700e-03)
+(  1.312710e+08Hz,  9.879390e-03, -1.007360e-03)
+(  1.314950e+08Hz,  9.878950e-03, -1.009020e-03)
+(  1.317190e+08Hz,  9.878500e-03, -1.010680e-03)
+(  1.319430e+08Hz,  9.878060e-03, -1.012340e-03)
+(  1.321670e+08Hz,  9.877610e-03, -1.014010e-03)
+(  1.323920e+08Hz,  9.877160e-03, -1.015680e-03)
+(  1.326180e+08Hz,  9.876720e-03, -1.017350e-03)
+(  1.328430e+08Hz,  9.876270e-03, -1.019020e-03)
+(  1.330690e+08Hz,  9.875810e-03, -1.020700e-03)
+(  1.332960e+08Hz,  9.875360e-03, -1.022380e-03)
+(  1.335230e+08Hz,  9.874900e-03, -1.024060e-03)
+(  1.337500e+08Hz,  9.874450e-03, -1.025740e-03)
+(  1.339780e+08Hz,  9.873990e-03, -1.027430e-03)
+(  1.342060e+08Hz,  9.873530e-03, -1.029120e-03)
+(  1.344340e+08Hz,  9.873070e-03, -1.030810e-03)
+(  1.346630e+08Hz,  9.872610e-03, -1.032500e-03)
+(  1.348920e+08Hz,  9.872140e-03, -1.034200e-03)
+(  1.351220e+08Hz,  9.871680e-03, -1.035900e-03)
+(  1.353520e+08Hz,  9.871210e-03, -1.037600e-03)
+(  1.355820e+08Hz,  9.870740e-03, -1.039310e-03)
+(  1.358130e+08Hz,  9.870270e-03, -1.041010e-03)
+(  1.360440e+08Hz,  9.869800e-03, -1.042720e-03)
+(  1.362760e+08Hz,  9.869330e-03, -1.044440e-03)
+(  1.365080e+08Hz,  9.868860e-03, -1.046150e-03)
+(  1.367400e+08Hz,  9.868380e-03, -1.047870e-03)
+(  1.369730e+08Hz,  9.867900e-03, -1.049590e-03)
+(  1.372060e+08Hz,  9.867420e-03, -1.051310e-03)
+(  1.374390e+08Hz,  9.866940e-03, -1.053040e-03)
+(  1.376730e+08Hz,  9.866460e-03, -1.054770e-03)
+(  1.379080e+08Hz,  9.865980e-03, -1.056500e-03)
+(  1.381420e+08Hz,  9.865490e-03, -1.058230e-03)
+(  1.383770e+08Hz,  9.865000e-03, -1.059970e-03)
+(  1.386130e+08Hz,  9.864510e-03, -1.061710e-03)
+(  1.388490e+08Hz,  9.864020e-03, -1.063450e-03)
+(  1.390850e+08Hz,  9.863530e-03, -1.065190e-03)
+(  1.393220e+08Hz,  9.863040e-03, -1.066940e-03)
+(  1.395590e+08Hz,  9.862540e-03, -1.068690e-03)
+(  1.397970e+08Hz,  9.862050e-03, -1.070440e-03)
+(  1.400340e+08Hz,  9.861550e-03, -1.072200e-03)
+(  1.402730e+08Hz,  9.861050e-03, -1.073950e-03)
+(  1.405120e+08Hz,  9.860550e-03, -1.075710e-03)
+(  1.407510e+08Hz,  9.860040e-03, -1.077480e-03)
+(  1.409900e+08Hz,  9.859540e-03, -1.079240e-03)
+(  1.412300e+08Hz,  9.859030e-03, -1.081010e-03)
+(  1.414710e+08Hz,  9.858530e-03, -1.082780e-03)
+(  1.417110e+08Hz,  9.858020e-03, -1.084550e-03)
+(  1.419530e+08Hz,  9.857500e-03, -1.086330e-03)
+(  1.421940e+08Hz,  9.856990e-03, -1.088110e-03)
+(  1.424360e+08Hz,  9.856480e-03, -1.089890e-03)
+(  1.426790e+08Hz,  9.855960e-03, -1.091670e-03)
+(  1.429220e+08Hz,  9.855440e-03, -1.093460e-03)
+(  1.431650e+08Hz,  9.854920e-03, -1.095250e-03)
+(  1.434080e+08Hz,  9.854400e-03, -1.097040e-03)
+(  1.436530e+08Hz,  9.853880e-03, -1.098840e-03)
+(  1.438970e+08Hz,  9.853350e-03, -1.100640e-03)
+(  1.441420e+08Hz,  9.852830e-03, -1.102440e-03)
+(  1.443870e+08Hz,  9.852300e-03, -1.104240e-03)
+(  1.446330e+08Hz,  9.851770e-03, -1.106040e-03)
+(  1.448790e+08Hz,  9.851240e-03, -1.107850e-03)
+(  1.451260e+08Hz,  9.850700e-03, -1.109660e-03)
+(  1.453730e+08Hz,  9.850170e-03, -1.111480e-03)
+(  1.456200e+08Hz,  9.849630e-03, -1.113300e-03)
+(  1.458680e+08Hz,  9.849090e-03, -1.115120e-03)
+(  1.461160e+08Hz,  9.848550e-03, -1.116940e-03)
+(  1.463650e+08Hz,  9.848010e-03, -1.118760e-03)
+(  1.466140e+08Hz,  9.847470e-03, -1.120590e-03)
+(  1.468640e+08Hz,  9.846920e-03, -1.122420e-03)
+(  1.471140e+08Hz,  9.846370e-03, -1.124250e-03)
+(  1.473640e+08Hz,  9.845820e-03, -1.126090e-03)
+(  1.476150e+08Hz,  9.845270e-03, -1.127930e-03)
+(  1.478660e+08Hz,  9.844720e-03, -1.129770e-03)
+(  1.481180e+08Hz,  9.844170e-03, -1.131610e-03)
+(  1.483700e+08Hz,  9.843610e-03, -1.133460e-03)
+(  1.486230e+08Hz,  9.843050e-03, -1.135310e-03)
+(  1.488750e+08Hz,  9.842490e-03, -1.137160e-03)
+(  1.491290e+08Hz,  9.841930e-03, -1.139020e-03)
+(  1.493830e+08Hz,  9.841370e-03, -1.140880e-03)
+(  1.496370e+08Hz,  9.840800e-03, -1.142740e-03)
+(  1.498920e+08Hz,  9.840230e-03, -1.144600e-03)
+(  1.501470e+08Hz,  9.839660e-03, -1.146470e-03)
+(  1.504020e+08Hz,  9.839090e-03, -1.148340e-03)
+(  1.506580e+08Hz,  9.838520e-03, -1.150210e-03)
+(  1.509150e+08Hz,  9.837950e-03, -1.152080e-03)
+(  1.511720e+08Hz,  9.837370e-03, -1.153960e-03)
+(  1.514290e+08Hz,  9.836790e-03, -1.155840e-03)
+(  1.516870e+08Hz,  9.836210e-03, -1.157720e-03)
+(  1.519450e+08Hz,  9.835630e-03, -1.159610e-03)
+(  1.522030e+08Hz,  9.835050e-03, -1.161500e-03)
+(  1.524620e+08Hz,  9.834460e-03, -1.163390e-03)
+(  1.527220e+08Hz,  9.833870e-03, -1.165290e-03)
+(  1.529820e+08Hz,  9.833280e-03, -1.167180e-03)
+(  1.532420e+08Hz,  9.832690e-03, -1.169080e-03)
+(  1.535030e+08Hz,  9.832100e-03, -1.170990e-03)
+(  1.537640e+08Hz,  9.831500e-03, -1.172890e-03)
+(  1.540260e+08Hz,  9.830900e-03, -1.174800e-03)
+(  1.542880e+08Hz,  9.830310e-03, -1.176710e-03)
+(  1.545510e+08Hz,  9.829700e-03, -1.178620e-03)
+(  1.548140e+08Hz,  9.829100e-03, -1.180540e-03)
+(  1.550770e+08Hz,  9.828500e-03, -1.182460e-03)
+(  1.553410e+08Hz,  9.827890e-03, -1.184380e-03)
+(  1.556060e+08Hz,  9.827280e-03, -1.186310e-03)
+(  1.558710e+08Hz,  9.826670e-03, -1.188240e-03)
+(  1.561360e+08Hz,  9.826060e-03, -1.190170e-03)
+(  1.564020e+08Hz,  9.825440e-03, -1.192100e-03)
+(  1.566680e+08Hz,  9.824820e-03, -1.194040e-03)
+(  1.569350e+08Hz,  9.824210e-03, -1.195980e-03)
+(  1.572020e+08Hz,  9.823590e-03, -1.197920e-03)
+(  1.574690e+08Hz,  9.822960e-03, -1.199870e-03)
+(  1.577370e+08Hz,  9.822340e-03, -1.201820e-03)
+(  1.580060e+08Hz,  9.821710e-03, -1.203770e-03)
+(  1.582750e+08Hz,  9.821080e-03, -1.205720e-03)
+(  1.585440e+08Hz,  9.820450e-03, -1.207680e-03)
+(  1.588140e+08Hz,  9.819820e-03, -1.209640e-03)
+(  1.590840e+08Hz,  9.819180e-03, -1.211600e-03)
+(  1.593550e+08Hz,  9.818550e-03, -1.213570e-03)
+(  1.596260e+08Hz,  9.817910e-03, -1.215540e-03)
+(  1.598980e+08Hz,  9.817270e-03, -1.217510e-03)
+(  1.601700e+08Hz,  9.816620e-03, -1.219480e-03)
+(  1.604430e+08Hz,  9.815980e-03, -1.221460e-03)
+(  1.607160e+08Hz,  9.815330e-03, -1.223440e-03)
+(  1.609890e+08Hz,  9.814680e-03, -1.225420e-03)
+(  1.612630e+08Hz,  9.814030e-03, -1.227410e-03)
+(  1.615380e+08Hz,  9.813380e-03, -1.229400e-03)
+(  1.618130e+08Hz,  9.812720e-03, -1.231390e-03)
+(  1.620880e+08Hz,  9.812060e-03, -1.233380e-03)
+(  1.623640e+08Hz,  9.811400e-03, -1.235380e-03)
+(  1.626400e+08Hz,  9.810740e-03, -1.237380e-03)
+(  1.629170e+08Hz,  9.810080e-03, -1.239380e-03)
+(  1.631940e+08Hz,  9.809410e-03, -1.241390e-03)
+(  1.634720e+08Hz,  9.808740e-03, -1.243400e-03)
+(  1.637500e+08Hz,  9.808070e-03, -1.245410e-03)
+(  1.640290e+08Hz,  9.807400e-03, -1.247430e-03)
+(  1.643080e+08Hz,  9.806720e-03, -1.249440e-03)
+(  1.645880e+08Hz,  9.806050e-03, -1.251470e-03)
+(  1.648680e+08Hz,  9.805370e-03, -1.253490e-03)
+(  1.651490e+08Hz,  9.804690e-03, -1.255520e-03)
+(  1.654300e+08Hz,  9.804000e-03, -1.257550e-03)
+(  1.657110e+08Hz,  9.803320e-03, -1.259580e-03)
+(  1.659930e+08Hz,  9.802630e-03, -1.261610e-03)
+(  1.662760e+08Hz,  9.801940e-03, -1.263650e-03)
+(  1.665590e+08Hz,  9.801250e-03, -1.265690e-03)
+(  1.668430e+08Hz,  9.800550e-03, -1.267740e-03)
+(  1.671260e+08Hz,  9.799850e-03, -1.269790e-03)
+(  1.674110e+08Hz,  9.799160e-03, -1.271840e-03)
+(  1.676960e+08Hz,  9.798450e-03, -1.273890e-03)
+(  1.679810e+08Hz,  9.797750e-03, -1.275950e-03)
+(  1.682670e+08Hz,  9.797040e-03, -1.278010e-03)
+(  1.685540e+08Hz,  9.796340e-03, -1.280070e-03)
+(  1.688410e+08Hz,  9.795630e-03, -1.282130e-03)
+(  1.691280e+08Hz,  9.794910e-03, -1.284200e-03)
+(  1.694160e+08Hz,  9.794200e-03, -1.286270e-03)
+(  1.697040e+08Hz,  9.793480e-03, -1.288350e-03)
+(  1.699930e+08Hz,  9.792760e-03, -1.290430e-03)
+(  1.702820e+08Hz,  9.792040e-03, -1.292510e-03)
+(  1.705720e+08Hz,  9.791320e-03, -1.294590e-03)
+(  1.708620e+08Hz,  9.790590e-03, -1.296680e-03)
+(  1.711530e+08Hz,  9.789860e-03, -1.298760e-03)
+(  1.714450e+08Hz,  9.789130e-03, -1.300860e-03)
+(  1.717360e+08Hz,  9.788400e-03, -1.302950e-03)
+(  1.720290e+08Hz,  9.787660e-03, -1.305050e-03)
+(  1.723210e+08Hz,  9.786920e-03, -1.307150e-03)
+(  1.726150e+08Hz,  9.786180e-03, -1.309260e-03)
+(  1.729090e+08Hz,  9.785440e-03, -1.311360e-03)
+(  1.732030e+08Hz,  9.784690e-03, -1.313470e-03)
+(  1.734980e+08Hz,  9.783950e-03, -1.315590e-03)
+(  1.737930e+08Hz,  9.783200e-03, -1.317700e-03)
+(  1.740890e+08Hz,  9.782440e-03, -1.319820e-03)
+(  1.743850e+08Hz,  9.781690e-03, -1.321940e-03)
+(  1.746820e+08Hz,  9.780930e-03, -1.324070e-03)
+(  1.749790e+08Hz,  9.780170e-03, -1.326200e-03)
+(  1.752770e+08Hz,  9.779410e-03, -1.328330e-03)
+(  1.755750e+08Hz,  9.778650e-03, -1.330460e-03)
+(  1.758740e+08Hz,  9.777880e-03, -1.332600e-03)
+(  1.761740e+08Hz,  9.777110e-03, -1.334740e-03)
+(  1.764730e+08Hz,  9.776340e-03, -1.336890e-03)
+(  1.767740e+08Hz,  9.775560e-03, -1.339030e-03)
+(  1.770750e+08Hz,  9.774790e-03, -1.341180e-03)
+(  1.773760e+08Hz,  9.774010e-03, -1.343340e-03)
+(  1.776780e+08Hz,  9.773230e-03, -1.345490e-03)
+(  1.779800e+08Hz,  9.772440e-03, -1.347650e-03)
+(  1.782830e+08Hz,  9.771660e-03, -1.349810e-03)
+(  1.785870e+08Hz,  9.770870e-03, -1.351980e-03)
+(  1.788910e+08Hz,  9.770080e-03, -1.354150e-03)
+(  1.791950e+08Hz,  9.769280e-03, -1.356320e-03)
+(  1.795000e+08Hz,  9.768480e-03, -1.358490e-03)
+(  1.798060e+08Hz,  9.767690e-03, -1.360670e-03)
+(  1.801120e+08Hz,  9.766880e-03, -1.362850e-03)
+(  1.804180e+08Hz,  9.766080e-03, -1.365030e-03)
+(  1.807250e+08Hz,  9.765270e-03, -1.367220e-03)
+(  1.810330e+08Hz,  9.764460e-03, -1.369410e-03)
+(  1.813410e+08Hz,  9.763650e-03, -1.371600e-03)
+(  1.816500e+08Hz,  9.762840e-03, -1.373800e-03)
+(  1.819590e+08Hz,  9.762020e-03, -1.376000e-03)
+(  1.822690e+08Hz,  9.761200e-03, -1.378200e-03)
+(  1.825790e+08Hz,  9.760380e-03, -1.380400e-03)
+(  1.828900e+08Hz,  9.759550e-03, -1.382610e-03)
+(  1.832010e+08Hz,  9.758720e-03, -1.384820e-03)
+(  1.835130e+08Hz,  9.757890e-03, -1.387040e-03)
+(  1.838250e+08Hz,  9.757060e-03, -1.389250e-03)
+(  1.841380e+08Hz,  9.756230e-03, -1.391480e-03)
+(  1.844510e+08Hz,  9.755390e-03, -1.393700e-03)
+(  1.847650e+08Hz,  9.754550e-03, -1.395930e-03)
+(  1.850800e+08Hz,  9.753700e-03, -1.398160e-03)
+(  1.853950e+08Hz,  9.752860e-03, -1.400390e-03)
+(  1.857100e+08Hz,  9.752010e-03, -1.402620e-03)
+(  1.860260e+08Hz,  9.751160e-03, -1.404860e-03)
+(  1.863430e+08Hz,  9.750300e-03, -1.407110e-03)
+(  1.866600e+08Hz,  9.749440e-03, -1.409350e-03)
+(  1.869780e+08Hz,  9.748580e-03, -1.411600e-03)
+(  1.872960e+08Hz,  9.747720e-03, -1.413850e-03)
+(  1.876150e+08Hz,  9.746860e-03, -1.416110e-03)
+(  1.879340e+08Hz,  9.745990e-03, -1.418370e-03)
+(  1.882540e+08Hz,  9.745120e-03, -1.420630e-03)
+(  1.885750e+08Hz,  9.744250e-03, -1.422890e-03)
+(  1.888960e+08Hz,  9.743370e-03, -1.425160e-03)
+(  1.892170e+08Hz,  9.742490e-03, -1.427430e-03)
+(  1.895390e+08Hz,  9.741610e-03, -1.429700e-03)
+(  1.898620e+08Hz,  9.740720e-03, -1.431980e-03)
+(  1.901850e+08Hz,  9.739840e-03, -1.434260e-03)
+(  1.905090e+08Hz,  9.738950e-03, -1.436540e-03)
+(  1.908330e+08Hz,  9.738050e-03, -1.438830e-03)
+(  1.911580e+08Hz,  9.737160e-03, -1.441120e-03)
+(  1.914830e+08Hz,  9.736260e-03, -1.443410e-03)
+(  1.918090e+08Hz,  9.735360e-03, -1.445710e-03)
+(  1.921350e+08Hz,  9.734450e-03, -1.448010e-03)
+(  1.924620e+08Hz,  9.733550e-03, -1.450310e-03)
+(  1.927900e+08Hz,  9.732640e-03, -1.452610e-03)
+(  1.931180e+08Hz,  9.731720e-03, -1.454920e-03)
+(  1.934470e+08Hz,  9.730810e-03, -1.457230e-03)
+(  1.937760e+08Hz,  9.729890e-03, -1.459550e-03)
+(  1.941060e+08Hz,  9.728970e-03, -1.461870e-03)
+(  1.944360e+08Hz,  9.728040e-03, -1.464190e-03)
+(  1.947670e+08Hz,  9.727120e-03, -1.466510e-03)
+(  1.950990e+08Hz,  9.726190e-03, -1.468840e-03)
+(  1.954310e+08Hz,  9.725250e-03, -1.471170e-03)
+(  1.957630e+08Hz,  9.724320e-03, -1.473500e-03)
+(  1.960970e+08Hz,  9.723380e-03, -1.475840e-03)
+(  1.964300e+08Hz,  9.722430e-03, -1.478180e-03)
+(  1.967650e+08Hz,  9.721490e-03, -1.480520e-03)
+(  1.971000e+08Hz,  9.720540e-03, -1.482870e-03)
+(  1.974350e+08Hz,  9.719590e-03, -1.485220e-03)
+(  1.977710e+08Hz,  9.718640e-03, -1.487570e-03)
+(  1.981080e+08Hz,  9.717680e-03, -1.489930e-03)
+(  1.984450e+08Hz,  9.716720e-03, -1.492290e-03)
+(  1.987830e+08Hz,  9.715760e-03, -1.494650e-03)
+(  1.991210e+08Hz,  9.714790e-03, -1.497020e-03)
+(  1.994600e+08Hz,  9.713820e-03, -1.499390e-03)
+(  1.997990e+08Hz,  9.712850e-03, -1.501760e-03)
+(  2.001390e+08Hz,  9.711870e-03, -1.504130e-03)
+(  2.004800e+08Hz,  9.710900e-03, -1.506510e-03)
+(  2.008210e+08Hz,  9.709910e-03, -1.508890e-03)
+(  2.011630e+08Hz,  9.708930e-03, -1.511280e-03)
+(  2.015060e+08Hz,  9.707940e-03, -1.513670e-03)
+(  2.018490e+08Hz,  9.706950e-03, -1.516060e-03)
+(  2.021920e+08Hz,  9.705960e-03, -1.518450e-03)
+(  2.025360e+08Hz,  9.704960e-03, -1.520850e-03)
+(  2.028810e+08Hz,  9.703960e-03, -1.523250e-03)
+(  2.032260e+08Hz,  9.702960e-03, -1.525660e-03)
+(  2.035720e+08Hz,  9.701950e-03, -1.528070e-03)
+(  2.039190e+08Hz,  9.700940e-03, -1.530480e-03)
+(  2.042660e+08Hz,  9.699930e-03, -1.532890e-03)
+(  2.046130e+08Hz,  9.698910e-03, -1.535310e-03)
+(  2.049620e+08Hz,  9.697890e-03, -1.537730e-03)
+(  2.053100e+08Hz,  9.696870e-03, -1.540150e-03)
+(  2.056600e+08Hz,  9.695850e-03, -1.542580e-03)
+(  2.060100e+08Hz,  9.694820e-03, -1.545010e-03)
+(  2.063610e+08Hz,  9.693790e-03, -1.547440e-03)
+(  2.067120e+08Hz,  9.692750e-03, -1.549880e-03)
+(  2.070640e+08Hz,  9.691710e-03, -1.552320e-03)
+(  2.074160e+08Hz,  9.690670e-03, -1.554760e-03)
+(  2.077690e+08Hz,  9.689630e-03, -1.557210e-03)
+(  2.081230e+08Hz,  9.688580e-03, -1.559660e-03)
+(  2.084770e+08Hz,  9.687530e-03, -1.562110e-03)
+(  2.088320e+08Hz,  9.686470e-03, -1.564570e-03)
+(  2.091870e+08Hz,  9.685420e-03, -1.567030e-03)
+(  2.095430e+08Hz,  9.684350e-03, -1.569490e-03)
+(  2.099000e+08Hz,  9.683290e-03, -1.571960e-03)
+(  2.102570e+08Hz,  9.682220e-03, -1.574420e-03)
+(  2.106150e+08Hz,  9.681150e-03, -1.576900e-03)
+(  2.109740e+08Hz,  9.680080e-03, -1.579370e-03)
+(  2.113330e+08Hz,  9.679000e-03, -1.581850e-03)
+(  2.116920e+08Hz,  9.677920e-03, -1.584330e-03)
+(  2.120530e+08Hz,  9.676830e-03, -1.586820e-03)
+(  2.124140e+08Hz,  9.675740e-03, -1.589310e-03)
+(  2.127750e+08Hz,  9.674650e-03, -1.591800e-03)
+(  2.131370e+08Hz,  9.673560e-03, -1.594300e-03)
+(  2.135000e+08Hz,  9.672460e-03, -1.596790e-03)
+(  2.138630e+08Hz,  9.671360e-03, -1.599300e-03)
+(  2.142270e+08Hz,  9.670250e-03, -1.601800e-03)
+(  2.145920e+08Hz,  9.669140e-03, -1.604310e-03)
+(  2.149570e+08Hz,  9.668030e-03, -1.606820e-03)
+(  2.153230e+08Hz,  9.666920e-03, -1.609340e-03)
+(  2.156900e+08Hz,  9.665800e-03, -1.611850e-03)
+(  2.160570e+08Hz,  9.664670e-03, -1.614380e-03)
+(  2.164250e+08Hz,  9.663550e-03, -1.616900e-03)
+(  2.167930e+08Hz,  9.662420e-03, -1.619430e-03)
+(  2.171620e+08Hz,  9.661290e-03, -1.621960e-03)
+(  2.175320e+08Hz,  9.660150e-03, -1.624490e-03)
+(  2.179020e+08Hz,  9.659010e-03, -1.627030e-03)
+(  2.182730e+08Hz,  9.657870e-03, -1.629570e-03)
+(  2.186440e+08Hz,  9.656720e-03, -1.632120e-03)
+(  2.190160e+08Hz,  9.655570e-03, -1.634670e-03)
+(  2.193890e+08Hz,  9.654410e-03, -1.637220e-03)
+(  2.197620e+08Hz,  9.653260e-03, -1.639770e-03)
+(  2.201370e+08Hz,  9.652090e-03, -1.642330e-03)
+(  2.205110e+08Hz,  9.650930e-03, -1.644890e-03)
+(  2.208870e+08Hz,  9.649760e-03, -1.647450e-03)
+(  2.212620e+08Hz,  9.648590e-03, -1.650020e-03)
+(  2.216390e+08Hz,  9.647410e-03, -1.652590e-03)
+(  2.220160e+08Hz,  9.646230e-03, -1.655170e-03)
+(  2.223940e+08Hz,  9.645050e-03, -1.657740e-03)
+(  2.227730e+08Hz,  9.643860e-03, -1.660320e-03)
+(  2.231520e+08Hz,  9.642670e-03, -1.662910e-03)
+(  2.235320e+08Hz,  9.641480e-03, -1.665490e-03)
+(  2.239120e+08Hz,  9.640280e-03, -1.668080e-03)
+(  2.242930e+08Hz,  9.639080e-03, -1.670680e-03)
+(  2.246750e+08Hz,  9.637870e-03, -1.673280e-03)
+(  2.250570e+08Hz,  9.636660e-03, -1.675880e-03)
+(  2.254410e+08Hz,  9.635450e-03, -1.678480e-03)
+(  2.258240e+08Hz,  9.634230e-03, -1.681090e-03)
+(  2.262090e+08Hz,  9.633010e-03, -1.683700e-03)
+(  2.265940e+08Hz,  9.631790e-03, -1.686310e-03)
+(  2.269790e+08Hz,  9.630560e-03, -1.688930e-03)
+(  2.273660e+08Hz,  9.629330e-03, -1.691550e-03)
+(  2.277530e+08Hz,  9.628090e-03, -1.694170e-03)
+(  2.281400e+08Hz,  9.626850e-03, -1.696800e-03)
+(  2.285290e+08Hz,  9.625610e-03, -1.699430e-03)
+(  2.289180e+08Hz,  9.624360e-03, -1.702060e-03)
+(  2.293070e+08Hz,  9.623110e-03, -1.704700e-03)
+(  2.296970e+08Hz,  9.621850e-03, -1.707340e-03)
+(  2.300880e+08Hz,  9.620590e-03, -1.709980e-03)
+(  2.304800e+08Hz,  9.619330e-03, -1.712630e-03)
+(  2.308720e+08Hz,  9.618070e-03, -1.715280e-03)
+(  2.312650e+08Hz,  9.616790e-03, -1.717930e-03)
+(  2.316590e+08Hz,  9.615520e-03, -1.720590e-03)
+(  2.320530e+08Hz,  9.614240e-03, -1.723250e-03)
+(  2.324480e+08Hz,  9.612960e-03, -1.725910e-03)
+(  2.328440e+08Hz,  9.611670e-03, -1.728580e-03)
+(  2.332400e+08Hz,  9.610380e-03, -1.731250e-03)
+(  2.336370e+08Hz,  9.609090e-03, -1.733920e-03)
+(  2.340350e+08Hz,  9.607790e-03, -1.736600e-03)
+(  2.344330e+08Hz,  9.606490e-03, -1.739280e-03)
+(  2.348320e+08Hz,  9.605180e-03, -1.741960e-03)
+(  2.352320e+08Hz,  9.603870e-03, -1.744650e-03)
+(  2.356320e+08Hz,  9.602560e-03, -1.747340e-03)
+(  2.360330e+08Hz,  9.601240e-03, -1.750030e-03)
+(  2.364350e+08Hz,  9.599920e-03, -1.752730e-03)
+(  2.368370e+08Hz,  9.598590e-03, -1.755430e-03)
+(  2.372400e+08Hz,  9.597260e-03, -1.758130e-03)
+(  2.376440e+08Hz,  9.595920e-03, -1.760840e-03)
+(  2.380490e+08Hz,  9.594580e-03, -1.763550e-03)
+(  2.384540e+08Hz,  9.593240e-03, -1.766260e-03)
+(  2.388600e+08Hz,  9.591890e-03, -1.768980e-03)
+(  2.392660e+08Hz,  9.590540e-03, -1.771700e-03)
+(  2.396740e+08Hz,  9.589190e-03, -1.774420e-03)
+(  2.400820e+08Hz,  9.587830e-03, -1.777150e-03)
+(  2.404900e+08Hz,  9.586460e-03, -1.779880e-03)
+(  2.408990e+08Hz,  9.585100e-03, -1.782610e-03)
+(  2.413090e+08Hz,  9.583720e-03, -1.785340e-03)
+(  2.417200e+08Hz,  9.582350e-03, -1.788080e-03)
+(  2.421320e+08Hz,  9.580970e-03, -1.790830e-03)
+(  2.425440e+08Hz,  9.579580e-03, -1.793570e-03)
+(  2.429570e+08Hz,  9.578190e-03, -1.796320e-03)
+(  2.433700e+08Hz,  9.576800e-03, -1.799080e-03)
+(  2.437840e+08Hz,  9.575400e-03, -1.801830e-03)
+(  2.441990e+08Hz,  9.574000e-03, -1.804590e-03)
+(  2.446150e+08Hz,  9.572590e-03, -1.807350e-03)
+(  2.450310e+08Hz,  9.571180e-03, -1.810120e-03)
+(  2.454480e+08Hz,  9.569770e-03, -1.812890e-03)
+(  2.458660e+08Hz,  9.568350e-03, -1.815660e-03)
+(  2.462850e+08Hz,  9.566930e-03, -1.818440e-03)
+(  2.467040e+08Hz,  9.565500e-03, -1.821220e-03)
+(  2.471240e+08Hz,  9.564060e-03, -1.824000e-03)
+(  2.475440e+08Hz,  9.562630e-03, -1.826790e-03)
+(  2.479660e+08Hz,  9.561190e-03, -1.829580e-03)
+(  2.483880e+08Hz,  9.559740e-03, -1.832370e-03)
+(  2.488100e+08Hz,  9.558290e-03, -1.835160e-03)
+(  2.492340e+08Hz,  9.556840e-03, -1.837960e-03)
+(  2.496580e+08Hz,  9.555380e-03, -1.840770e-03)
+(  2.500830e+08Hz,  9.553920e-03, -1.843570e-03)
+(  2.505090e+08Hz,  9.552450e-03, -1.846380e-03)
+(  2.509350e+08Hz,  9.550980e-03, -1.849190e-03)
+(  2.513620e+08Hz,  9.549500e-03, -1.852010e-03)
+(  2.517900e+08Hz,  9.548020e-03, -1.854830e-03)
+(  2.522190e+08Hz,  9.546530e-03, -1.857650e-03)
+(  2.526480e+08Hz,  9.545040e-03, -1.860480e-03)
+(  2.530780e+08Hz,  9.543550e-03, -1.863310e-03)
+(  2.535090e+08Hz,  9.542050e-03, -1.866140e-03)
+(  2.539400e+08Hz,  9.540540e-03, -1.868970e-03)
+(  2.543720e+08Hz,  9.539030e-03, -1.871810e-03)
+(  2.548050e+08Hz,  9.537520e-03, -1.874660e-03)
+(  2.552390e+08Hz,  9.536000e-03, -1.877500e-03)
+(  2.556730e+08Hz,  9.534480e-03, -1.880350e-03)
+(  2.561090e+08Hz,  9.532950e-03, -1.883200e-03)
+(  2.565440e+08Hz,  9.531420e-03, -1.886060e-03)
+(  2.569810e+08Hz,  9.529890e-03, -1.888920e-03)
+(  2.574180e+08Hz,  9.528340e-03, -1.891780e-03)
+(  2.578570e+08Hz,  9.526800e-03, -1.894640e-03)
+(  2.582950e+08Hz,  9.525250e-03, -1.897510e-03)
+(  2.587350e+08Hz,  9.523690e-03, -1.900390e-03)
+(  2.591760e+08Hz,  9.522130e-03, -1.903260e-03)
+(  2.596170e+08Hz,  9.520570e-03, -1.906140e-03)
+(  2.600590e+08Hz,  9.519000e-03, -1.909020e-03)
+(  2.605010e+08Hz,  9.517420e-03, -1.911910e-03)
+(  2.609450e+08Hz,  9.515850e-03, -1.914800e-03)
+(  2.613890e+08Hz,  9.514260e-03, -1.917690e-03)
+(  2.618340e+08Hz,  9.512670e-03, -1.920580e-03)
+(  2.622790e+08Hz,  9.511080e-03, -1.923480e-03)
+(  2.627260e+08Hz,  9.509480e-03, -1.926380e-03)
+(  2.631730e+08Hz,  9.507880e-03, -1.929290e-03)
+(  2.636210e+08Hz,  9.506270e-03, -1.932190e-03)
+(  2.640690e+08Hz,  9.504660e-03, -1.935110e-03)
+(  2.645190e+08Hz,  9.503040e-03, -1.938020e-03)
+(  2.649690e+08Hz,  9.501420e-03, -1.940940e-03)
+(  2.654200e+08Hz,  9.499790e-03, -1.943860e-03)
+(  2.658720e+08Hz,  9.498160e-03, -1.946790e-03)
+(  2.663240e+08Hz,  9.496520e-03, -1.949710e-03)
+(  2.667780e+08Hz,  9.494880e-03, -1.952640e-03)
+(  2.672320e+08Hz,  9.493230e-03, -1.955580e-03)
+(  2.676870e+08Hz,  9.491580e-03, -1.958520e-03)